Version 4
SHEET 1 2044 680
WIRE -144 -448 -208 -448
WIRE -16 -448 -80 -448
WIRE 848 -416 752 -416
WIRE 1024 -416 928 -416
WIRE 272 -400 208 -400
WIRE 416 -400 352 -400
WIRE 1392 -384 1312 -384
WIRE 1568 -384 1472 -384
WIRE 1824 -368 1760 -368
WIRE 1984 -368 1904 -368
WIRE -432 -272 -624 -272
WIRE -208 -272 -208 -448
WIRE -208 -272 -352 -272
WIRE -144 -272 -208 -272
WIRE 416 -272 416 -400
WIRE 560 -272 416 -272
WIRE 752 -272 752 -416
WIRE 752 -272 640 -272
WIRE 848 -272 752 -272
WIRE -624 -256 -624 -272
WIRE -16 -256 -16 -448
WIRE -16 -256 -80 -256
WIRE 64 -256 -16 -256
WIRE 208 -256 208 -400
WIRE 208 -256 144 -256
WIRE 288 -256 208 -256
WIRE 1024 -256 1024 -416
WIRE 1024 -256 912 -256
WIRE 1136 -256 1024 -256
WIRE 1312 -256 1312 -384
WIRE 1312 -256 1200 -256
WIRE 1408 -256 1312 -256
WIRE -144 -240 -208 -240
WIRE 416 -240 416 -272
WIRE 416 -240 352 -240
WIRE 752 -240 640 -240
WIRE 848 -240 752 -240
WIRE 1568 -240 1568 -384
WIRE 1568 -240 1472 -240
WIRE 1616 -240 1568 -240
WIRE 1760 -240 1760 -368
WIRE 1760 -240 1696 -240
WIRE 1840 -240 1760 -240
WIRE 1984 -240 1984 -368
WIRE 288 -224 208 -224
WIRE 1408 -224 1312 -224
WIRE 1984 -224 1984 -240
WIRE 1984 -224 1904 -224
WIRE 1840 -208 1760 -208
WIRE -208 -192 -208 -240
WIRE 208 -192 208 -224
WIRE 1312 -160 1312 -224
WIRE 1760 -160 1760 -208
WIRE 640 -128 640 -240
WIRE 752 -128 752 -240
WIRE -160 -96 -224 -96
WIRE -32 -96 -96 -96
WIRE 256 -48 192 -48
WIRE 400 -48 336 -48
WIRE 752 16 752 -48
WIRE -448 80 -640 80
WIRE -224 80 -224 -96
WIRE -224 80 -368 80
WIRE -160 80 -224 80
WIRE -640 96 -640 80
WIRE -32 96 -32 -96
WIRE -32 96 -96 96
WIRE 48 96 -32 96
WIRE 192 96 192 -48
WIRE 192 96 128 96
WIRE 272 96 192 96
WIRE -160 112 -224 112
WIRE 400 112 400 -48
WIRE 400 112 336 112
WIRE 640 112 640 -48
WIRE 640 112 400 112
WIRE 992 112 992 64
WIRE 1056 112 992 112
WIRE 1104 112 1104 64
WIRE 1104 112 1056 112
WIRE 272 128 192 128
WIRE 1056 128 1056 112
WIRE -224 160 -224 112
WIRE 192 160 192 128
FLAG 1056 128 0
FLAG 992 -16 V+
IOPIN 992 -16 Out
FLAG 1104 -16 V-
IOPIN 1104 -16 Out
FLAG -112 -288 V+
IOPIN -112 -288 In
FLAG -112 -224 V-
IOPIN -112 -224 In
FLAG -624 -176 0
FLAG 1440 -272 V+
IOPIN 1440 -272 In
FLAG 1440 -208 V-
IOPIN 1440 -208 In
FLAG -208 -192 0
FLAG 1312 -160 0
FLAG 320 -272 V+
IOPIN 320 -272 In
FLAG 320 -208 V-
IOPIN 320 -208 In
FLAG -128 64 V+
IOPIN -128 64 In
FLAG -128 128 V-
IOPIN -128 128 In
FLAG -640 176 0
FLAG -224 160 0
FLAG 304 80 V+
IOPIN 304 80 In
FLAG 304 144 V-
IOPIN 304 144 In
FLAG 208 -192 0
FLAG 192 160 0
FLAG 880 -288 V+
IOPIN 880 -288 In
FLAG 880 -224 V-
IOPIN 880 -224 In
FLAG 1872 -256 V+
IOPIN 1872 -256 In
FLAG 1872 -192 V-
IOPIN 1872 -192 In
FLAG 1760 -160 0
FLAG 1984 -240 Out
IOPIN 1984 -240 Out
FLAG 752 16 0
SYMBOL OpAmps\\opamp2 -112 -320 R0
SYMATTR InstName U1
SYMATTR Value LM258_ON
SYMBOL voltage 992 -32 R0
WINDOW 123 0 0 Left 0
WINDOW 39 0 0 Left 0
SYMATTR InstName V1
SYMATTR Value 16
SYMBOL res -336 -288 R90
WINDOW 0 0 56 VBottom 2
WINDOW 3 32 56 VTop 2
SYMATTR InstName R1
SYMATTR Value 1Meg
SYMBOL schottky -144 -432 R270
WINDOW 0 32 32 VTop 2
WINDOW 3 0 32 VBottom 2
SYMATTR InstName D1
SYMATTR Value BAT54
SYMATTR Description Diode
SYMATTR Type diode
SYMBOL voltage -624 -272 R0
WINDOW 123 0 0 Left 0
WINDOW 39 0 0 Left 0
WINDOW 3 44 55 Left 2
SYMATTR Value PULSE(0 15 0 0 0 10m 20m)
SYMATTR InstName V2
SYMBOL res 160 -272 R90
WINDOW 0 0 56 VBottom 2
WINDOW 3 32 56 VTop 2
SYMATTR InstName R2
SYMATTR Value 1k
SYMBOL schottky 1136 -240 R270
WINDOW 0 32 32 VTop 2
WINDOW 3 0 32 VBottom 2
SYMATTR InstName D2
SYMATTR Value 1N5817
SYMATTR Description Diode
SYMATTR Type diode
SYMBOL OpAmps\\opamp2 1440 -304 R0
SYMATTR InstName U2
SYMATTR Value LM258_ON
SYMBOL res 1488 -400 R90
WINDOW 0 0 56 VBottom 2
WINDOW 3 32 56 VTop 2
SYMATTR InstName R3
SYMATTR Value 1k
SYMBOL OpAmps\\opamp2 320 -304 R0
SYMATTR InstName U3
SYMATTR Value LM258_ON
SYMBOL res 368 -416 R90
WINDOW 0 0 56 VBottom 2
WINDOW 3 32 56 VTop 2
SYMATTR InstName R4
SYMATTR Value 1k
SYMBOL OpAmps\\opamp2 -128 32 R0
SYMATTR InstName U4
SYMATTR Value LM258_ON
SYMBOL res -352 64 R90
WINDOW 0 0 56 VBottom 2
WINDOW 3 32 56 VTop 2
SYMATTR InstName R5
SYMATTR Value 1Meg
SYMBOL schottky -160 -80 R270
WINDOW 0 32 32 VTop 2
WINDOW 3 0 32 VBottom 2
SYMATTR InstName D3
SYMATTR Value BAT54
SYMATTR Description Diode
SYMATTR Type diode
SYMBOL voltage -640 80 R0
WINDOW 123 0 0 Left 0
WINDOW 39 0 0 Left 0
WINDOW 3 44 57 Left 2
SYMATTR Value SINE(0 0.15 5)
SYMATTR InstName V3
SYMBOL res 144 80 R90
WINDOW 0 0 56 VBottom 2
WINDOW 3 32 56 VTop 2
SYMATTR InstName R6
SYMATTR Value 1k
SYMBOL OpAmps\\opamp2 304 48 R0
SYMATTR InstName U5
SYMATTR Value LM258_ON
SYMBOL res 352 -64 R90
WINDOW 0 0 56 VBottom 2
WINDOW 3 32 56 VTop 2
SYMATTR InstName R7
SYMATTR Value 1k
SYMBOL voltage 1104 80 R180
WINDOW 0 24 96 Left 2
WINDOW 3 24 16 Left 2
WINDOW 123 0 0 Left 0
WINDOW 39 0 0 Left 0
SYMATTR InstName V4
SYMATTR Value 16
SYMBOL OpAmps\\opamp2 880 -320 R0
SYMATTR InstName U6
SYMATTR Value LM258_ON
SYMBOL OpAmps\\opamp2 1872 -288 R0
SYMATTR InstName U7
SYMATTR Value LM258_ON
SYMBOL res 1712 -256 R90
WINDOW 0 0 56 VBottom 2
WINDOW 3 32 56 VTop 2
SYMATTR InstName R12
SYMATTR Value 1k
SYMBOL res 1920 -384 R90
WINDOW 0 0 56 VBottom 2
WINDOW 3 32 56 VTop 2
SYMATTR InstName R13
SYMATTR Value 1k
SYMBOL res 656 -32 R180
WINDOW 0 36 76 Left 2
WINDOW 3 36 40 Left 2
SYMATTR InstName R8
SYMATTR Value 1k
SYMBOL res 736 -144 R0
SYMATTR InstName R9
SYMATTR Value 1k
SYMBOL res 656 -288 R90
WINDOW 0 0 56 VBottom 2
WINDOW 3 32 56 VTop 2
SYMATTR InstName R10
SYMATTR Value 1k
SYMBOL res 944 -432 R90
WINDOW 0 0 56 VBottom 2
WINDOW 3 32 56 VTop 2
SYMATTR InstName R11
SYMATTR Value 1k
TEXT -312 608 Left 2 !.include C:\\Users\\berat\\Desktop\\Electronics 2\\Project\\LM258.MOD
TEXT -792 632 Left 2 !.tran 0 1 0 0.001
