Version 4
SHEET 1 2132 680
WIRE 688 -672 656 -672
WIRE 656 -640 656 -672
WIRE 688 -592 688 -672
WIRE -288 -544 -352 -544
WIRE -160 -544 -224 -544
WIRE 128 -496 64 -496
WIRE 272 -496 208 -496
WIRE 688 -480 688 -512
WIRE 784 -480 688 -480
WIRE 928 -480 864 -480
WIRE 1248 -480 1168 -480
WIRE 1424 -480 1328 -480
WIRE 1680 -464 1616 -464
WIRE 1840 -464 1760 -464
WIRE -576 -368 -768 -368
WIRE -352 -368 -352 -544
WIRE -352 -368 -496 -368
WIRE -288 -368 -352 -368
WIRE 688 -368 688 -480
WIRE 704 -368 688 -368
WIRE -768 -352 -768 -368
WIRE -160 -352 -160 -544
WIRE -160 -352 -224 -352
WIRE -80 -352 -160 -352
WIRE 64 -352 64 -496
WIRE 64 -352 0 -352
WIRE 144 -352 64 -352
WIRE 928 -352 928 -480
WIRE 928 -352 768 -352
WIRE 992 -352 928 -352
WIRE 1168 -352 1168 -480
WIRE 1168 -352 1056 -352
WIRE 1264 -352 1168 -352
WIRE -288 -336 -352 -336
WIRE 272 -336 272 -496
WIRE 272 -336 208 -336
WIRE 384 -336 272 -336
WIRE 560 -336 464 -336
WIRE 704 -336 560 -336
WIRE 1424 -336 1424 -480
WIRE 1424 -336 1328 -336
WIRE 1472 -336 1424 -336
WIRE 1616 -336 1616 -464
WIRE 1616 -336 1552 -336
WIRE 1696 -336 1616 -336
WIRE 1840 -336 1840 -464
WIRE 144 -320 64 -320
WIRE 1264 -320 1168 -320
WIRE 1840 -320 1840 -336
WIRE 1840 -320 1760 -320
WIRE 1696 -304 1616 -304
WIRE -352 -288 -352 -336
WIRE 64 -288 64 -320
WIRE 560 -288 560 -336
WIRE 1168 -256 1168 -320
WIRE 1616 -256 1616 -304
WIRE -304 -192 -368 -192
WIRE -176 -192 -240 -192
WIRE 112 -144 48 -144
WIRE 256 -144 192 -144
WIRE 736 -32 736 -80
WIRE 800 -32 736 -32
WIRE 848 -32 848 -80
WIRE 848 -32 800 -32
WIRE -592 -16 -784 -16
WIRE -368 -16 -368 -192
WIRE -368 -16 -512 -16
WIRE -304 -16 -368 -16
WIRE 800 -16 800 -32
WIRE -784 0 -784 -16
WIRE -176 0 -176 -192
WIRE -176 0 -240 0
WIRE -96 0 -176 0
WIRE 48 0 48 -144
WIRE 48 0 -16 0
WIRE 128 0 48 0
WIRE -304 16 -368 16
WIRE 256 16 256 -144
WIRE 256 16 192 16
WIRE 560 16 560 -208
WIRE 560 16 256 16
WIRE 128 32 48 32
WIRE -368 64 -368 16
WIRE 48 64 48 32
FLAG 800 -16 0
FLAG 736 -160 V+
IOPIN 736 -160 Out
FLAG 848 -160 V-
IOPIN 848 -160 Out
FLAG -256 -384 V+
IOPIN -256 -384 In
FLAG -256 -320 V-
IOPIN -256 -320 In
FLAG -768 -272 0
FLAG 1296 -368 V+
IOPIN 1296 -368 In
FLAG 1296 -304 V-
IOPIN 1296 -304 In
FLAG -352 -288 0
FLAG 1168 -256 0
FLAG 176 -368 V+
IOPIN 176 -368 In
FLAG 176 -304 V-
IOPIN 176 -304 In
FLAG -272 -32 V+
IOPIN -272 -32 In
FLAG -272 32 V-
IOPIN -272 32 In
FLAG -784 80 0
FLAG -368 64 0
FLAG 160 -16 V+
IOPIN 160 -16 In
FLAG 160 48 V-
IOPIN 160 48 In
FLAG 64 -288 0
FLAG 48 64 0
FLAG 736 -384 V+
IOPIN 736 -384 In
FLAG 736 -320 V-
IOPIN 736 -320 In
FLAG 656 -640 0
FLAG 1728 -352 V+
IOPIN 1728 -352 In
FLAG 1728 -288 V-
IOPIN 1728 -288 In
FLAG 1616 -256 0
FLAG 1840 -336 Out
IOPIN 1840 -336 Out
SYMBOL OpAmps\\opamp2 -256 -416 R0
SYMATTR InstName U1
SYMATTR Value LM258_ON
SYMBOL voltage 736 -176 R0
WINDOW 123 0 0 Left 0
WINDOW 39 0 0 Left 0
SYMATTR InstName V1
SYMATTR Value 16
SYMBOL res -480 -384 R90
WINDOW 0 0 56 VBottom 2
WINDOW 3 32 56 VTop 2
SYMATTR InstName R1
SYMATTR Value 1Meg
SYMBOL schottky -288 -528 R270
WINDOW 0 32 32 VTop 2
WINDOW 3 0 32 VBottom 2
SYMATTR InstName D1
SYMATTR Value BAT54
SYMATTR Description Diode
SYMATTR Type diode
SYMBOL voltage -768 -368 R0
WINDOW 123 0 0 Left 0
WINDOW 39 0 0 Left 0
WINDOW 3 -357 129 Left 2
SYMATTR InstName V3
SYMATTR Value PWL(0 0 0.05 0.05 0.1 0.1 0.15 0.15 0.2 0.2 0.25 0.25 0.3 0.3 0.35 0.35 0.4 0.4 0.45 0.45 0.5 0.5)
SYMBOL res 16 -368 R90
WINDOW 0 0 56 VBottom 2
WINDOW 3 32 56 VTop 2
SYMATTR InstName R3
SYMATTR Value 1k
SYMBOL schottky 992 -336 R270
WINDOW 0 32 32 VTop 2
WINDOW 3 0 32 VBottom 2
SYMATTR InstName D3
SYMATTR Value 1N5817
SYMATTR Description Diode
SYMATTR Type diode
SYMBOL OpAmps\\opamp2 1296 -400 R0
SYMATTR InstName U4
SYMATTR Value LM258_ON
SYMBOL res 1344 -496 R90
WINDOW 0 0 56 VBottom 2
WINDOW 3 32 56 VTop 2
SYMATTR InstName R6
SYMATTR Value 1k
SYMBOL OpAmps\\opamp2 176 -400 R0
SYMATTR InstName U5
SYMATTR Value LM258_ON
SYMBOL res 224 -512 R90
WINDOW 0 0 56 VBottom 2
WINDOW 3 32 56 VTop 2
SYMATTR InstName R7
SYMATTR Value 1k
SYMBOL OpAmps\\opamp2 -272 -64 R0
SYMATTR InstName U2
SYMATTR Value LM258_ON
SYMBOL res -496 -32 R90
WINDOW 0 0 56 VBottom 2
WINDOW 3 32 56 VTop 2
SYMATTR InstName R2
SYMATTR Value 1Meg
SYMBOL schottky -304 -176 R270
WINDOW 0 32 32 VTop 2
WINDOW 3 0 32 VBottom 2
SYMATTR InstName D2
SYMATTR Value BAT54
SYMATTR Description Diode
SYMATTR Type diode
SYMBOL voltage -784 -16 R0
WINDOW 123 0 0 Left 0
WINDOW 39 0 0 Left 0
WINDOW 3 44 57 Left 2
SYMATTR InstName V2
SYMATTR Value PULSE(0 0.5 0 0 0 10m 20m)
SYMBOL res 0 -16 R90
WINDOW 0 0 56 VBottom 2
WINDOW 3 32 56 VTop 2
SYMATTR InstName R4
SYMATTR Value 1k
SYMBOL OpAmps\\opamp2 160 -48 R0
SYMATTR InstName U3
SYMATTR Value LM258_ON
SYMBOL res 208 -160 R90
WINDOW 0 0 56 VBottom 2
WINDOW 3 32 56 VTop 2
SYMATTR InstName R5
SYMATTR Value 1k
SYMBOL voltage 848 -64 R180
WINDOW 0 24 96 Left 2
WINDOW 3 24 16 Left 2
WINDOW 123 0 0 Left 0
WINDOW 39 0 0 Left 0
SYMATTR InstName V4
SYMATTR Value 16
SYMBOL res 480 -352 R90
WINDOW 0 0 56 VBottom 2
WINDOW 3 32 56 VTop 2
SYMATTR InstName R8
SYMATTR Value 1k
SYMBOL res 576 -192 R180
WINDOW 0 36 76 Left 2
WINDOW 3 36 40 Left 2
SYMATTR InstName R9
SYMATTR Value 1k
SYMBOL OpAmps\\opamp2 736 -416 R0
SYMATTR InstName U6
SYMATTR Value LM258_ON
SYMBOL res 704 -496 R180
WINDOW 0 36 76 Left 2
WINDOW 3 36 40 Left 2
SYMATTR InstName R10
SYMATTR Value 1k
SYMBOL res 768 -464 R270
WINDOW 0 32 56 VTop 2
WINDOW 3 0 56 VBottom 2
SYMATTR InstName R11
SYMATTR Value 1k
SYMBOL OpAmps\\opamp2 1728 -384 R0
SYMATTR InstName U7
SYMATTR Value LM258_ON
SYMBOL res 1568 -352 R90
WINDOW 0 0 56 VBottom 2
WINDOW 3 32 56 VTop 2
SYMATTR InstName R12
SYMATTR Value 1k
SYMBOL res 1776 -480 R90
WINDOW 0 0 56 VBottom 2
WINDOW 3 32 56 VTop 2
SYMATTR InstName R13
SYMATTR Value 1k
TEXT -936 592 Left 2 !.include C:\\Users\\berat\\Desktop\\Electronics 2\\Project\\LM258.MOD
TEXT -938 612 Left 2 !.tran 0 0.3 0 0.0001
